[VMEM] WARNING: physical memory size is smaller than virtual memory size.

*** ChampSim Multicore Out-of-Order Simulator ***
Warmup Instructions: 2000000
Simulation Instructions: 10000000
Number of CPUs: 1
Page size: 4096

Off-chip DRAM Size: 16 GiB Channels: 1 Width: 64-bit Data Rate: 3205 MT/s
[MAMBA_ML] Model loaded successfully
[MAMBA_ML] curr=(278,58) pred=(0,59) conf=0.935365 ipex=LOW volt=BOOST deg=8
[MAMBA_ML] curr=(503,58) pred=(0,59) conf=0.941844 ipex=LOW volt=BOOST deg=8
[MAMBA_ML] curr=(221,58) pred=(0,59) conf=0.927168 ipex=LOW volt=BOOST deg=8
[MAMBA_ML] curr=(147,33) pred=(0,34) conf=0.942062 ipex=LOW volt=BOOST deg=8
[MAMBA_ML] curr=(147,34) pred=(0,35) conf=0.57916 ipex=LOW volt=BOOST deg=8
[MAMBA_ML] curr=(147,35) pred=(0,36) conf=0.938185 ipex=LOW volt=BOOST deg=8
[MAMBA_ML] curr=(147,36) pred=(0,37) conf=0.942972 ipex=LOW volt=BOOST deg=8
[MAMBA_ML] curr=(147,38) pred=(0,39) conf=0.943512 ipex=LOW volt=BOOST deg=8
[MAMBA_ML] prefetch ISSUED 0x2b2e939c0 deg=8
[MAMBA_ML] curr=(146,59) pred=(0,60) conf=0.943217 ipex=LOW volt=BOOST deg=8
[MAMBA_ML] curr=(278,59) pred=(0,60) conf=0.944301 ipex=LOW volt=BOOST deg=8
[MAMBA_ML] curr=(503,59) pred=(0,60) conf=0.945814 ipex=LOW volt=BOOST deg=8
[MAMBA_ML] curr=(221,59) pred=(0,60) conf=0.926659 ipex=LOW volt=BOOST deg=8
[MAMBA_ML] curr=(146,60) pred=(0,61) conf=0.940011 ipex=LOW volt=BOOST deg=8
[MAMBA_ML] curr=(345,51) pred=(0,52) conf=0.947804 ipex=LOW volt=BOOST deg=8
[MAMBA_ML] curr=(150,27) pred=(0,28) conf=0.940909 ipex=LOW volt=BOOST deg=8
[MAMBA_ML] curr=(120,3) pred=(0,4) conf=0.922492 ipex=LOW volt=BOOST deg=8
[MAMBA_ML] prefetch ISSUED 0xc7078100 deg=8
[MAMBA_ML] curr=(278,60) pred=(0,61) conf=0.562775 ipex=LOW volt=BOOST deg=8
[MAMBA_ML] curr=(503,60) pred=(0,61) conf=0.940971 ipex=LOW volt=BOOST deg=8
[MAMBA_ML] curr=(221,60) pred=(0,61) conf=0.943679 ipex=LOW volt=BOOST deg=8
[MAMBA_ML] curr=(146,61) pred=(0,62) conf=0.945142 ipex=LOW volt=BOOST deg=8
[MAMBA_ML] prefetch ISSUED 0x6e620f40 deg=8
[MAMBA_ML] prefetch ISSUED 0x2177f0f00 deg=8
[MAMBA_ML] prefetch ISSUED 0xf6e818c0 deg=8
[MAMBA_ML] prefetch ISSUED 0x23756f040 deg=8
[MAMBA_ML] prefetch ISSUED 0x23756f180 deg=8
[MAMBA_ML] prefetch ISSUED 0x292959d80 deg=8
[MAMBA_ML] prefetch ISSUED 0x3b0803200 deg=8
[MAMBA_ML] prefetch ISSUED 0xf6e81940 deg=8
[MAMBA_ML] prefetch ISSUED 0x3b0803280 deg=8
[MAMBA_ML] prefetch ISSUED 0x3b08032c0 deg=8
[MAMBA_ML] prefetch ISSUED 0x292959dc0 deg=8
[MAMBA_ML] prefetch ISSUED 0x3b0803340 deg=8
[MAMBA_ML] prefetch ISSUED 0xf6e81980 deg=8
[MAMBA_ML] prefetch ISSUED 0x3b08033c0 deg=8
[MAMBA_ML] prefetch ISSUED 0x23756f400 deg=8
[MAMBA_ML] prefetch ISSUED 0x27d4c6440 deg=8
[MAMBA_ML] prefetch ISSUED 0x3b0803480 deg=8
[MAMBA_ML] prefetch ISSUED 0xf6e819c0 deg=8
Warmup finished CPU 0 instructions: 2000000 cycles: 769579 cumulative IPC: 2.599 (Simulation time: 00 hr 02 min 25 sec)
Warmup complete CPU 0 instructions: 2000000 cycles: 769579 cumulative IPC: 2.599 (Simulation time: 00 hr 02 min 25 sec)
Heartbeat CPU 0 instructions: 10000001 cycles: 12150983 heartbeat IPC: 0.823 cumulative IPC: 0.7029 (Simulation time: 00 hr 11 min 39 sec)
Simulation finished CPU 0 instructions: 10000004 cycles: 14229904 cumulative IPC: 0.7027 (Simulation time: 00 hr 13 min 51 sec)
Simulation complete CPU 0 instructions: 10000004 cycles: 14229904 cumulative IPC: 0.7027 (Simulation time: 00 hr 13 min 51 sec)

ChampSim completed all CPUs

=== Simulation ===
CPU 0 runs /home/venu_reddy/spec2006/bwaves_1609B.trace.xz

Region of Interest Statistics

CPU 0 cumulative IPC: 0.7027 instructions: 10000004 cycles: 14229904
CPU 0 Branch Prediction Accuracy: 99.95% MPKI: 0.0151 Average ROB Occupancy at Mispredict: 262.1
Branch type MPKI
BRANCH_DIRECT_JUMP: 0
BRANCH_INDIRECT: 0
BRANCH_CONDITIONAL: 0.0151
BRANCH_DIRECT_CALL: 0
BRANCH_INDIRECT_CALL: 0
BRANCH_RETURN: 0

cpu0->cpu0_STLB TOTAL        ACCESS:      11110 HIT:       7692 MISS:       3418 MSHR_MERGE:          0
cpu0->cpu0_STLB LOAD         ACCESS:      11110 HIT:       7692 MISS:       3418 MSHR_MERGE:          0
cpu0->cpu0_STLB RFO          ACCESS:          0 HIT:          0 MISS:          0 MSHR_MERGE:          0
cpu0->cpu0_STLB PREFETCH     ACCESS:          0 HIT:          0 MISS:          0 MSHR_MERGE:          0
cpu0->cpu0_STLB WRITE        ACCESS:          0 HIT:          0 MISS:          0 MSHR_MERGE:          0
cpu0->cpu0_STLB TRANSLATION  ACCESS:          0 HIT:          0 MISS:          0 MSHR_MERGE:          0
cpu0->cpu0_STLB PREFETCH REQUESTED:          0 ISSUED:          0 USEFUL:          0 USELESS:          0
cpu0->cpu0_STLB AVERAGE MISS LATENCY: 694.6 cycles
cpu0->cpu0_L2C TOTAL        ACCESS:     268070 HIT:      28797 MISS:     239273 MSHR_MERGE:       7683
cpu0->cpu0_L2C LOAD         ACCESS:     228861 HIT:      22080 MISS:     206781 MSHR_MERGE:       7328
cpu0->cpu0_L2C RFO          ACCESS:       5838 HIT:          0 MISS:       5838 MSHR_MERGE:          0
cpu0->cpu0_L2C PREFETCH     ACCESS:      23464 HIT:        703 MISS:      22761 MSHR_MERGE:        355
cpu0->cpu0_L2C WRITE        ACCESS:       5854 HIT:       5854 MISS:          0 MSHR_MERGE:          0
cpu0->cpu0_L2C TRANSLATION  ACCESS:       4053 HIT:        160 MISS:       3893 MSHR_MERGE:          0
cpu0->cpu0_L2C PREFETCH REQUESTED:      23464 ISSUED:      23464 USEFUL:      22398 USELESS:          7
cpu0->cpu0_L2C AVERAGE MISS LATENCY: 253.6 cycles
cpu0->cpu0_L1I TOTAL        ACCESS:    2854571 HIT:    2854568 MISS:          3 MSHR_MERGE:          0
cpu0->cpu0_L1I LOAD         ACCESS:    2854571 HIT:    2854568 MISS:          3 MSHR_MERGE:          0
cpu0->cpu0_L1I RFO          ACCESS:          0 HIT:          0 MISS:          0 MSHR_MERGE:          0
cpu0->cpu0_L1I PREFETCH     ACCESS:          0 HIT:          0 MISS:          0 MSHR_MERGE:          0
cpu0->cpu0_L1I WRITE        ACCESS:          0 HIT:          0 MISS:          0 MSHR_MERGE:          0
cpu0->cpu0_L1I TRANSLATION  ACCESS:          0 HIT:          0 MISS:          0 MSHR_MERGE:          0
cpu0->cpu0_L1I PREFETCH REQUESTED:          0 ISSUED:          0 USEFUL:          0 USELESS:          0
cpu0->cpu0_L1I AVERAGE MISS LATENCY: 221.7 cycles
cpu0->cpu0_L1D TOTAL        ACCESS:    3196635 HIT:    2900876 MISS:     295759 MSHR_MERGE:      57010
cpu0->cpu0_L1D LOAD         ACCESS:    2908114 HIT:    2627226 MISS:     280888 MSHR_MERGE:      52030
cpu0->cpu0_L1D RFO          ACCESS:          0 HIT:          0 MISS:          0 MSHR_MERGE:          0
cpu0->cpu0_L1D PREFETCH     ACCESS:          0 HIT:          0 MISS:          0 MSHR_MERGE:          0
cpu0->cpu0_L1D WRITE        ACCESS:     281678 HIT:     270860 MISS:      10818 MSHR_MERGE:       4980
cpu0->cpu0_L1D TRANSLATION  ACCESS:       6843 HIT:       2790 MISS:       4053 MSHR_MERGE:          0
cpu0->cpu0_L1D PREFETCH REQUESTED:          0 ISSUED:          0 USEFUL:          0 USELESS:          0
cpu0->cpu0_L1D AVERAGE MISS LATENCY: 237.9 cycles
cpu0->cpu0_ITLB TOTAL        ACCESS:    2726820 HIT:    2726820 MISS:          0 MSHR_MERGE:          0
cpu0->cpu0_ITLB LOAD         ACCESS:    2726820 HIT:    2726820 MISS:          0 MSHR_MERGE:          0
cpu0->cpu0_ITLB RFO          ACCESS:          0 HIT:          0 MISS:          0 MSHR_MERGE:          0
cpu0->cpu0_ITLB PREFETCH     ACCESS:          0 HIT:          0 MISS:          0 MSHR_MERGE:          0
cpu0->cpu0_ITLB WRITE        ACCESS:          0 HIT:          0 MISS:          0 MSHR_MERGE:          0
cpu0->cpu0_ITLB TRANSLATION  ACCESS:          0 HIT:          0 MISS:          0 MSHR_MERGE:          0
cpu0->cpu0_ITLB PREFETCH REQUESTED:          0 ISSUED:          0 USEFUL:          0 USELESS:          0
cpu0->cpu0_ITLB AVERAGE MISS LATENCY: - cycles
cpu0->cpu0_DTLB TOTAL        ACCESS:    3134831 HIT:    3119269 MISS:      15562 MSHR_MERGE:       4452
cpu0->cpu0_DTLB LOAD         ACCESS:    3134831 HIT:    3119269 MISS:      15562 MSHR_MERGE:       4452
cpu0->cpu0_DTLB RFO          ACCESS:          0 HIT:          0 MISS:          0 MSHR_MERGE:          0
cpu0->cpu0_DTLB PREFETCH     ACCESS:          0 HIT:          0 MISS:          0 MSHR_MERGE:          0
cpu0->cpu0_DTLB WRITE        ACCESS:          0 HIT:          0 MISS:          0 MSHR_MERGE:          0
cpu0->cpu0_DTLB TRANSLATION  ACCESS:          0 HIT:          0 MISS:          0 MSHR_MERGE:          0
cpu0->cpu0_DTLB PREFETCH REQUESTED:          0 ISSUED:          0 USEFUL:          0 USELESS:          0
cpu0->cpu0_DTLB AVERAGE MISS LATENCY: 218 cycles
cpu0->LLC TOTAL        ACCESS:     237512 HIT:       5926 MISS:     231586 MSHR_MERGE:          0
cpu0->LLC LOAD         ACCESS:     199453 HIT:          3 MISS:     199450 MSHR_MERGE:          0
cpu0->LLC RFO          ACCESS:       5838 HIT:          0 MISS:       5838 MSHR_MERGE:          0
cpu0->LLC PREFETCH     ACCESS:      22406 HIT:          1 MISS:      22405 MSHR_MERGE:          0
cpu0->LLC WRITE        ACCESS:       5922 HIT:       5922 MISS:          0 MSHR_MERGE:          0
cpu0->LLC TRANSLATION  ACCESS:       3893 HIT:          0 MISS:       3893 MSHR_MERGE:          0
cpu0->LLC PREFETCH REQUESTED:          0 ISSUED:          0 USEFUL:          0 USELESS:          0
cpu0->LLC AVERAGE MISS LATENCY: 242.9 cycles

DRAM Statistics

Channel 0 RQ ROW_BUFFER_HIT:          0
  ROW_BUFFER_MISS:     231586
  AVG DBUS CONGESTED CYCLE: 4.502
Channel 0 WQ ROW_BUFFER_HIT:       1285
  ROW_BUFFER_MISS:       4432
  FULL:          0
Channel 0 REFRESHES ISSUED:       1185
