[VMEM] WARNING: physical memory size is smaller than virtual memory size.

*** ChampSim Multicore Out-of-Order Simulator ***
Warmup Instructions: 2000000
Simulation Instructions: 10000000
Number of CPUs: 1
Page size: 4096

Off-chip DRAM Size: 16 GiB Channels: 1 Width: 64-bit Data Rate: 3205 MT/s
[MAMBA_ML] Model loaded successfully
[MAMBA_ML] curr=(218,56) pred=(0,57) conf=0.921043 ipex=LOW volt=BOOST deg=8
[MAMBA_ML] curr=(218,55) pred=(0,56) conf=0.928079 ipex=LOW volt=BOOST deg=8
[MAMBA_ML] curr=(440,27) pred=(0,28) conf=0.930734 ipex=LOW volt=BOOST deg=8
[MAMBA_ML] curr=(440,28) pred=(0,29) conf=0.669415 ipex=LOW volt=BOOST deg=8
[MAMBA_ML] curr=(102,1) pred=(0,2) conf=0.923309 ipex=LOW volt=BOOST deg=8
[MAMBA_ML] curr=(102,3) pred=(0,1) conf=0.790247 ipex=LOW volt=BOOST deg=8
[MAMBA_ML] curr=(102,5) pred=(0,3) conf=0.631932 ipex=LOW volt=BOOST deg=8
[MAMBA_ML] curr=(348,21) pred=(0,22) conf=0.853146 ipex=LOW volt=BOOST deg=8
[MAMBA_ML] curr=(348,20) pred=(0,21) conf=0.832482 ipex=LOW volt=BOOST deg=8
[MAMBA_ML] curr=(348,19) pred=(0,20) conf=0.88885 ipex=LOW volt=BOOST deg=8
[MAMBA_ML] curr=(348,23) pred=(0,24) conf=0.885783 ipex=LOW volt=BOOST deg=8
[MAMBA_ML] curr=(348,25) pred=(0,26) conf=0.90746 ipex=LOW volt=BOOST deg=8
[MAMBA_ML] curr=(348,24) pred=(0,25) conf=0.913746 ipex=LOW volt=BOOST deg=8
[MAMBA_ML] curr=(414,31) pred=(0,32) conf=0.891317 ipex=LOW volt=BOOST deg=8
[MAMBA_ML] curr=(309,6) pred=(0,7) conf=0.917784 ipex=LOW volt=BOOST deg=8
[MAMBA_ML] curr=(147,16) pred=(0,17) conf=0.922059 ipex=LOW volt=BOOST deg=8
[MAMBA_ML] prefetch ISSUED 0x2b2e93440 deg=8
[MAMBA_ML] curr=(414,25) pred=(0,26) conf=0.926782 ipex=LOW volt=BOOST deg=8
[MAMBA_ML] curr=(348,22) pred=(0,23) conf=0.930678 ipex=LOW volt=BOOST deg=8
[MAMBA_ML] curr=(102,7) pred=(0,8) conf=0.933255 ipex=LOW volt=BOOST deg=8
[MAMBA_ML] curr=(348,26) pred=(0,27) conf=0.937451 ipex=LOW volt=BOOST deg=8
[MAMBA_ML] prefetch ISSUED 0x38e35c780 deg=8
[MAMBA_ML] prefetch ISSUED 0x3dae66680 deg=8
[MAMBA_ML] prefetch ISSUED 0x38e35cc00 deg=8
[MAMBA_ML] prefetch ISSUED 0x38e35cf80 deg=8
[MAMBA_ML] prefetch ISSUED 0x1add680 deg=8
[MAMBA_ML] prefetch ISSUED 0x2177f0040 deg=8
[MAMBA_ML] prefetch ISSUED 0x3232f3f00 deg=8
[MAMBA_ML] prefetch ISSUED 0x3232f3f80 deg=8
[MAMBA_ML] prefetch ISSUED 0x23756f380 deg=8
[MAMBA_ML] prefetch ISSUED 0x1aafb8b40 deg=8
[MAMBA_ML] prefetch ISSUED 0x14bb10ac0 deg=8
[MAMBA_ML] prefetch ISSUED 0xcf83b600 deg=8
[MAMBA_ML] prefetch ISSUED 0x23756fa40 deg=8
[MAMBA_ML] prefetch ISSUED 0x23756ff00 deg=8
[MAMBA_ML] prefetch ISSUED 0x2fa0c9540 deg=8
[MAMBA_ML] prefetch ISSUED 0x2fa0c9600 deg=8
[MAMBA_ML] prefetch ISSUED 0x2fa0c9b00 deg=8
[MAMBA_ML] prefetch ISSUED 0x1aafb8f00 deg=8
[MAMBA_ML] prefetch ISSUED 0x22272f8c0 deg=8
Warmup finished CPU 0 instructions: 2000000 cycles: 1651701 cumulative IPC: 1.211 (Simulation time: 00 hr 02 min 35 sec)
Warmup complete CPU 0 instructions: 2000000 cycles: 1651701 cumulative IPC: 1.211 (Simulation time: 00 hr 02 min 35 sec)
Heartbeat CPU 0 instructions: 10000002 cycles: 42430877 heartbeat IPC: 0.2357 cumulative IPC: 0.1962 (Simulation time: 00 hr 17 min 21 sec)
Simulation finished CPU 0 instructions: 10000001 cycles: 56202615 cumulative IPC: 0.1779 (Simulation time: 00 hr 21 min 56 sec)
Simulation complete CPU 0 instructions: 10000001 cycles: 56202615 cumulative IPC: 0.1779 (Simulation time: 00 hr 21 min 56 sec)

ChampSim completed all CPUs

=== Simulation ===
CPU 0 runs /home/venu_reddy/spec2006/gcc_13B.trace.xz

Region of Interest Statistics

CPU 0 cumulative IPC: 0.1779 instructions: 10000001 cycles: 56202615
CPU 0 Branch Prediction Accuracy: 96% MPKI: 7.903 Average ROB Occupancy at Mispredict: 115.8
Branch type MPKI
BRANCH_DIRECT_JUMP: 0.001
BRANCH_INDIRECT: 0.0001
BRANCH_CONDITIONAL: 4.689
BRANCH_DIRECT_CALL: 0.0014
BRANCH_INDIRECT_CALL: 0
BRANCH_RETURN: 3.212

cpu0->cpu0_STLB TOTAL        ACCESS:      22071 HIT:       9674 MISS:      12397 MSHR_MERGE:          0
cpu0->cpu0_STLB LOAD         ACCESS:      22071 HIT:       9674 MISS:      12397 MSHR_MERGE:          0
cpu0->cpu0_STLB RFO          ACCESS:          0 HIT:          0 MISS:          0 MSHR_MERGE:          0
cpu0->cpu0_STLB PREFETCH     ACCESS:          0 HIT:          0 MISS:          0 MSHR_MERGE:          0
cpu0->cpu0_STLB WRITE        ACCESS:          0 HIT:          0 MISS:          0 MSHR_MERGE:          0
cpu0->cpu0_STLB TRANSLATION  ACCESS:          0 HIT:          0 MISS:          0 MSHR_MERGE:          0
cpu0->cpu0_STLB PREFETCH REQUESTED:          0 ISSUED:          0 USEFUL:          0 USELESS:          0
cpu0->cpu0_STLB AVERAGE MISS LATENCY: 615.2 cycles
cpu0->cpu0_L2C TOTAL        ACCESS:     675876 HIT:     217425 MISS:     458451 MSHR_MERGE:       1569
cpu0->cpu0_L2C LOAD         ACCESS:     311696 HIT:      17764 MISS:     293932 MSHR_MERGE:        725
cpu0->cpu0_L2C RFO          ACCESS:     124835 HIT:       1446 MISS:     123389 MSHR_MERGE:        252
cpu0->cpu0_L2C PREFETCH     ACCESS:      26529 HIT:       3226 MISS:      23303 MSHR_MERGE:        592
cpu0->cpu0_L2C WRITE        ACCESS:     194933 HIT:     194921 MISS:         12 MSHR_MERGE:          0
cpu0->cpu0_L2C TRANSLATION  ACCESS:      17883 HIT:         68 MISS:      17815 MSHR_MERGE:          0
cpu0->cpu0_L2C PREFETCH REQUESTED:      26529 ISSUED:      26529 USEFUL:      15337 USELESS:       7054
cpu0->cpu0_L2C AVERAGE MISS LATENCY: 257 cycles
cpu0->cpu0_L1I TOTAL        ACCESS:     353746 HIT:     353668 MISS:         78 MSHR_MERGE:          6
cpu0->cpu0_L1I LOAD         ACCESS:     353746 HIT:     353668 MISS:         78 MSHR_MERGE:          6
cpu0->cpu0_L1I RFO          ACCESS:          0 HIT:          0 MISS:          0 MSHR_MERGE:          0
cpu0->cpu0_L1I PREFETCH     ACCESS:          0 HIT:          0 MISS:          0 MSHR_MERGE:          0
cpu0->cpu0_L1I WRITE        ACCESS:          0 HIT:          0 MISS:          0 MSHR_MERGE:          0
cpu0->cpu0_L1I TRANSLATION  ACCESS:          0 HIT:          0 MISS:          0 MSHR_MERGE:          0
cpu0->cpu0_L1I PREFETCH REQUESTED:          0 ISSUED:          0 USEFUL:          0 USELESS:          0
cpu0->cpu0_L1I AVERAGE MISS LATENCY: 202.1 cycles
cpu0->cpu0_L1D TOTAL        ACCESS:    3123898 HIT:    1836179 MISS:    1287719 MSHR_MERGE:     833377
cpu0->cpu0_L1D LOAD         ACCESS:    1620938 HIT:    1025653 MISS:     595285 MSHR_MERGE:     283661
cpu0->cpu0_L1D RFO          ACCESS:          0 HIT:          0 MISS:          0 MSHR_MERGE:          0
cpu0->cpu0_L1D PREFETCH     ACCESS:          0 HIT:          0 MISS:          0 MSHR_MERGE:          0
cpu0->cpu0_L1D WRITE        ACCESS:    1478113 HIT:     803579 MISS:     674534 MSHR_MERGE:     549699
cpu0->cpu0_L1D TRANSLATION  ACCESS:      24847 HIT:       6947 MISS:      17900 MSHR_MERGE:         17
cpu0->cpu0_L1D PREFETCH REQUESTED:          0 ISSUED:          0 USEFUL:          0 USELESS:          0
cpu0->cpu0_L1D AVERAGE MISS LATENCY: 254 cycles
cpu0->cpu0_ITLB TOTAL        ACCESS:     323066 HIT:     323057 MISS:          9 MSHR_MERGE:          1
cpu0->cpu0_ITLB LOAD         ACCESS:     323066 HIT:     323057 MISS:          9 MSHR_MERGE:          1
cpu0->cpu0_ITLB RFO          ACCESS:          0 HIT:          0 MISS:          0 MSHR_MERGE:          0
cpu0->cpu0_ITLB PREFETCH     ACCESS:          0 HIT:          0 MISS:          0 MSHR_MERGE:          0
cpu0->cpu0_ITLB WRITE        ACCESS:          0 HIT:          0 MISS:          0 MSHR_MERGE:          0
cpu0->cpu0_ITLB TRANSLATION  ACCESS:          0 HIT:          0 MISS:          0 MSHR_MERGE:          0
cpu0->cpu0_ITLB PREFETCH REQUESTED:          0 ISSUED:          0 USEFUL:          0 USELESS:          0
cpu0->cpu0_ITLB AVERAGE MISS LATENCY: 845.5 cycles
cpu0->cpu0_DTLB TOTAL        ACCESS:    2825352 HIT:    2770870 MISS:      54482 MSHR_MERGE:      32419
cpu0->cpu0_DTLB LOAD         ACCESS:    2825352 HIT:    2770870 MISS:      54482 MSHR_MERGE:      32419
cpu0->cpu0_DTLB RFO          ACCESS:          0 HIT:          0 MISS:          0 MSHR_MERGE:          0
cpu0->cpu0_DTLB PREFETCH     ACCESS:          0 HIT:          0 MISS:          0 MSHR_MERGE:          0
cpu0->cpu0_DTLB WRITE        ACCESS:          0 HIT:          0 MISS:          0 MSHR_MERGE:          0
cpu0->cpu0_DTLB TRANSLATION  ACCESS:          0 HIT:          0 MISS:          0 MSHR_MERGE:          0
cpu0->cpu0_DTLB PREFETCH REQUESTED:          0 ISSUED:          0 USEFUL:          0 USELESS:          0
cpu0->cpu0_DTLB AVERAGE MISS LATENCY: 349.9 cycles
cpu0->LLC TOTAL        ACCESS:     654104 HIT:     214508 MISS:     439596 MSHR_MERGE:          0
cpu0->LLC LOAD         ACCESS:     293207 HIT:      12841 MISS:     280366 MSHR_MERGE:          0
cpu0->LLC RFO          ACCESS:     123137 HIT:       3301 MISS:     119836 MSHR_MERGE:          0
cpu0->LLC PREFETCH     ACCESS:      22711 HIT:       1036 MISS:      21675 MSHR_MERGE:          0
cpu0->LLC WRITE        ACCESS:     197234 HIT:     197226 MISS:          8 MSHR_MERGE:          0
cpu0->LLC TRANSLATION  ACCESS:      17815 HIT:        104 MISS:      17711 MSHR_MERGE:          0
cpu0->LLC PREFETCH REQUESTED:          0 ISSUED:          0 USEFUL:          0 USELESS:          0
cpu0->LLC AVERAGE MISS LATENCY: 253.8 cycles

DRAM Statistics

Channel 0 RQ ROW_BUFFER_HIT:       8189
  ROW_BUFFER_MISS:     431397
  AVG DBUS CONGESTED CYCLE: 9.068
Channel 0 WQ ROW_BUFFER_HIT:      59999
  ROW_BUFFER_MISS:     153708
  FULL:          0
Channel 0 REFRESHES ISSUED:       4684
