[VMEM] WARNING: physical memory size is smaller than virtual memory size.

*** ChampSim Multicore Out-of-Order Simulator ***
Warmup Instructions: 2000000
Simulation Instructions: 10000000
Number of CPUs: 1
Page size: 4096

Off-chip DRAM Size: 16 GiB Channels: 1 Width: 64-bit Data Rate: 3205 MT/s
[MAMBA_ML] Model loaded successfully
[MAMBA_ML] curr=(199,0) pred=(0,1) conf=0.937424 ipex=LOW volt=BOOST deg=8
[MAMBA_ML] curr=(479,39) pred=(0,40) conf=0.939017 ipex=LOW volt=BOOST deg=8
[MAMBA_ML] curr=(26,24) pred=(0,25) conf=0.896853 ipex=LOW volt=BOOST deg=8
[MAMBA_ML] curr=(82,41) pred=(0,42) conf=0.931025 ipex=LOW volt=BOOST deg=8
[MAMBA_ML] curr=(23,0) pred=(0,1) conf=0.940062 ipex=LOW volt=BOOST deg=8
[MAMBA_ML] curr=(119,48) pred=(0,49) conf=0.938603 ipex=LOW volt=BOOST deg=8
[MAMBA_ML] curr=(423,63) pred=(0,0) conf=0.940318 ipex=LOW volt=BOOST deg=8
[MAMBA_ML] curr=(412,59) pred=(0,60) conf=0.677286 ipex=LOW volt=BOOST deg=8
[MAMBA_ML] curr=(204,8) pred=(0,9) conf=0.783186 ipex=LOW volt=BOOST deg=8
[MAMBA_ML] curr=(38,47) pred=(0,48) conf=0.869437 ipex=LOW volt=BOOST deg=8
[MAMBA_ML] curr=(162,36) pred=(0,37) conf=0.877882 ipex=LOW volt=BOOST deg=8
[MAMBA_ML] curr=(268,32) pred=(0,33) conf=0.884666 ipex=LOW volt=BOOST deg=8
[MAMBA_ML] curr=(13,28) pred=(0,29) conf=0.89381 ipex=LOW volt=BOOST deg=8
[MAMBA_ML] curr=(121,6) pred=(0,7) conf=0.894253 ipex=LOW volt=BOOST deg=8
[MAMBA_ML] curr=(211,56) pred=(0,57) conf=0.898933 ipex=LOW volt=BOOST deg=8
[MAMBA_ML] curr=(214,33) pred=(0,34) conf=0.903125 ipex=LOW volt=BOOST deg=8
[MAMBA_ML] prefetch ISSUED 0x696d6880 deg=8
[MAMBA_ML] curr=(356,1) pred=(0,2) conf=0.573082 ipex=LOW volt=BOOST deg=8
[MAMBA_ML] curr=(1,16) pred=(0,1) conf=0.500171 ipex=LOW volt=BOOST deg=8
[MAMBA_ML] curr=(386,47) pred=(0,48) conf=0.888352 ipex=LOW volt=BOOST deg=8
[MAMBA_ML] curr=(44,45) pred=(0,46) conf=0.896998 ipex=LOW volt=BOOST deg=8
[MAMBA_ML] prefetch ISSUED 0x3d6456dc0 deg=8
[MAMBA_ML] prefetch ISSUED 0x3d73ee580 deg=8
[MAMBA_ML] prefetch ISSUED 0x2260c1880 deg=8
[MAMBA_ML] prefetch ISSUED 0x3a3fa8680 deg=8
[MAMBA_ML] prefetch ISSUED 0x24bddf040 deg=8
[MAMBA_ML] prefetch ISSUED 0x3921db040 deg=8
[MAMBA_ML] prefetch ISSUED 0x196283240 deg=8
[MAMBA_ML] prefetch ISSUED 0x8b4340 deg=8
[MAMBA_ML] prefetch ISSUED 0x53c2a8c0 deg=8
[MAMBA_ML] prefetch ISSUED 0x107281480 deg=8
[MAMBA_ML] prefetch ISSUED 0x3d67ac040 deg=8
[MAMBA_ML] prefetch ISSUED 0x3ff757c40 deg=8
[MAMBA_ML] prefetch ISSUED 0xe245b600 deg=8
[MAMBA_ML] prefetch ISSUED 0x131ce9840 deg=8
[MAMBA_ML] prefetch ISSUED 0x193ad4a40 deg=8
[MAMBA_ML] prefetch ISSUED 0x164e74e00 deg=8
[MAMBA_ML] prefetch ISSUED 0x1c0392a00 deg=8
[MAMBA_ML] prefetch ISSUED 0x2f30b7040 deg=8
[MAMBA_ML] prefetch ISSUED 0x1f5596c00 deg=8
Warmup finished CPU 0 instructions: 2000004 cycles: 1236076 cumulative IPC: 1.618 (Simulation time: 00 hr 14 min 46 sec)
Warmup complete CPU 0 instructions: 2000004 cycles: 1236076 cumulative IPC: 1.618 (Simulation time: 00 hr 14 min 46 sec)
Heartbeat CPU 0 instructions: 10000001 cycles: 102257893 heartbeat IPC: 0.09779 cumulative IPC: 0.07919 (Simulation time: 01 hr 17 min 10 sec)
Simulation finished CPU 0 instructions: 10000000 cycles: 123484600 cumulative IPC: 0.08098 (Simulation time: 01 hr 32 min 30 sec)
Simulation complete CPU 0 instructions: 10000000 cycles: 123484600 cumulative IPC: 0.08098 (Simulation time: 01 hr 32 min 30 sec)

ChampSim completed all CPUs

=== Simulation ===
CPU 0 runs /home/venu_reddy/spec2006/mcf_158B.trace.xz

Region of Interest Statistics

CPU 0 cumulative IPC: 0.08098 instructions: 10000000 cycles: 123484600
CPU 0 Branch Prediction Accuracy: 92.09% MPKI: 23.56 Average ROB Occupancy at Mispredict: 26.21
Branch type MPKI
BRANCH_DIRECT_JUMP: 0.3431
BRANCH_INDIRECT: 0
BRANCH_CONDITIONAL: 23.22
BRANCH_DIRECT_CALL: 0.0001
BRANCH_INDIRECT_CALL: 0
BRANCH_RETURN: 0.0001

cpu0->cpu0_STLB TOTAL        ACCESS:    1573605 HIT:    1533713 MISS:      39892 MSHR_MERGE:          0
cpu0->cpu0_STLB LOAD         ACCESS:    1573605 HIT:    1533713 MISS:      39892 MSHR_MERGE:          0
cpu0->cpu0_STLB RFO          ACCESS:          0 HIT:          0 MISS:          0 MSHR_MERGE:          0
cpu0->cpu0_STLB PREFETCH     ACCESS:          0 HIT:          0 MISS:          0 MSHR_MERGE:          0
cpu0->cpu0_STLB WRITE        ACCESS:          0 HIT:          0 MISS:          0 MSHR_MERGE:          0
cpu0->cpu0_STLB TRANSLATION  ACCESS:          0 HIT:          0 MISS:          0 MSHR_MERGE:          0
cpu0->cpu0_STLB PREFETCH REQUESTED:          0 ISSUED:          0 USEFUL:          0 USELESS:          0
cpu0->cpu0_STLB AVERAGE MISS LATENCY: 772.4 cycles
cpu0->cpu0_L2C TOTAL        ACCESS:    1863561 HIT:     471285 MISS:    1392276 MSHR_MERGE:       3531
cpu0->cpu0_L2C LOAD         ACCESS:    1548997 HIT:     368883 MISS:    1180114 MSHR_MERGE:         88
cpu0->cpu0_L2C RFO          ACCESS:       7793 HIT:       1934 MISS:       5859 MSHR_MERGE:          0
cpu0->cpu0_L2C PREFETCH     ACCESS:     129818 HIT:      10066 MISS:     119752 MSHR_MERGE:       3443
cpu0->cpu0_L2C WRITE        ACCESS:      84591 HIT:      84509 MISS:         82 MSHR_MERGE:          0
cpu0->cpu0_L2C TRANSLATION  ACCESS:      92362 HIT:       5893 MISS:      86469 MSHR_MERGE:          0
cpu0->cpu0_L2C PREFETCH REQUESTED:     129818 ISSUED:     129818 USEFUL:      46731 USELESS:      69530
cpu0->cpu0_L2C AVERAGE MISS LATENCY: 157.8 cycles
cpu0->cpu0_L1I TOTAL        ACCESS:      72716 HIT:      72709 MISS:          7 MSHR_MERGE:          0
cpu0->cpu0_L1I LOAD         ACCESS:      72716 HIT:      72709 MISS:          7 MSHR_MERGE:          0
cpu0->cpu0_L1I RFO          ACCESS:          0 HIT:          0 MISS:          0 MSHR_MERGE:          0
cpu0->cpu0_L1I PREFETCH     ACCESS:          0 HIT:          0 MISS:          0 MSHR_MERGE:          0
cpu0->cpu0_L1I WRITE        ACCESS:          0 HIT:          0 MISS:          0 MSHR_MERGE:          0
cpu0->cpu0_L1I TRANSLATION  ACCESS:          0 HIT:          0 MISS:          0 MSHR_MERGE:          0
cpu0->cpu0_L1I PREFETCH REQUESTED:          0 ISSUED:          0 USEFUL:          0 USELESS:          0
cpu0->cpu0_L1I AVERAGE MISS LATENCY: 202.9 cycles
cpu0->cpu0_L1D TOTAL        ACCESS:    2875798 HIT:     697737 MISS:    2178061 MSHR_MERGE:     528916
cpu0->cpu0_L1D LOAD         ACCESS:    2596701 HIT:     521029 MISS:    2075672 MSHR_MERGE:     526682
cpu0->cpu0_L1D RFO          ACCESS:          0 HIT:          0 MISS:          0 MSHR_MERGE:          0
cpu0->cpu0_L1D PREFETCH     ACCESS:          0 HIT:          0 MISS:          0 MSHR_MERGE:          0
cpu0->cpu0_L1D WRITE        ACCESS:     176568 HIT:     167593 MISS:       8975 MSHR_MERGE:       1182
cpu0->cpu0_L1D TRANSLATION  ACCESS:     102529 HIT:       9115 MISS:      93414 MSHR_MERGE:       1052
cpu0->cpu0_L1D PREFETCH REQUESTED:          0 ISSUED:          0 USEFUL:          0 USELESS:          0
cpu0->cpu0_L1D AVERAGE MISS LATENCY: 129.5 cycles
cpu0->cpu0_ITLB TOTAL        ACCESS:      65495 HIT:      65494 MISS:          1 MSHR_MERGE:          0
cpu0->cpu0_ITLB LOAD         ACCESS:      65495 HIT:      65494 MISS:          1 MSHR_MERGE:          0
cpu0->cpu0_ITLB RFO          ACCESS:          0 HIT:          0 MISS:          0 MSHR_MERGE:          0
cpu0->cpu0_ITLB PREFETCH     ACCESS:          0 HIT:          0 MISS:          0 MSHR_MERGE:          0
cpu0->cpu0_ITLB WRITE        ACCESS:          0 HIT:          0 MISS:          0 MSHR_MERGE:          0
cpu0->cpu0_ITLB TRANSLATION  ACCESS:          0 HIT:          0 MISS:          0 MSHR_MERGE:          0
cpu0->cpu0_ITLB PREFETCH REQUESTED:          0 ISSUED:          0 USEFUL:          0 USELESS:          0
cpu0->cpu0_ITLB AVERAGE MISS LATENCY: 1524 cycles
cpu0->cpu0_DTLB TOTAL        ACCESS:    2633662 HIT:     677586 MISS:    1956076 MSHR_MERGE:     382472
cpu0->cpu0_DTLB LOAD         ACCESS:    2633662 HIT:     677586 MISS:    1956076 MSHR_MERGE:     382472
cpu0->cpu0_DTLB RFO          ACCESS:          0 HIT:          0 MISS:          0 MSHR_MERGE:          0
cpu0->cpu0_DTLB PREFETCH     ACCESS:          0 HIT:          0 MISS:          0 MSHR_MERGE:          0
cpu0->cpu0_DTLB WRITE        ACCESS:          0 HIT:          0 MISS:          0 MSHR_MERGE:          0
cpu0->cpu0_DTLB TRANSLATION  ACCESS:          0 HIT:          0 MISS:          0 MSHR_MERGE:          0
cpu0->cpu0_DTLB PREFETCH REQUESTED:          0 ISSUED:          0 USEFUL:          0 USELESS:          0
cpu0->cpu0_DTLB AVERAGE MISS LATENCY: 23.61 cycles
cpu0->LLC TOTAL        ACCESS:    1459304 HIT:     437956 MISS:    1021348 MSHR_MERGE:          0
cpu0->LLC LOAD         ACCESS:    1180025 HIT:     336953 MISS:     843072 MSHR_MERGE:          0
cpu0->LLC RFO          ACCESS:       5859 HIT:       1553 MISS:       4306 MSHR_MERGE:          0
cpu0->LLC PREFETCH     ACCESS:     116309 HIT:      17336 MISS:      98973 MSHR_MERGE:          0
cpu0->LLC WRITE        ACCESS:      70642 HIT:      70333 MISS:        309 MSHR_MERGE:          0
cpu0->LLC TRANSLATION  ACCESS:      86469 HIT:      11781 MISS:      74688 MSHR_MERGE:          0
cpu0->LLC PREFETCH REQUESTED:          0 ISSUED:          0 USEFUL:          0 USELESS:          0
cpu0->LLC AVERAGE MISS LATENCY: 200.1 cycles

DRAM Statistics

Channel 0 RQ ROW_BUFFER_HIT:        522
  ROW_BUFFER_MISS:    1020378
  AVG DBUS CONGESTED CYCLE: 13.16
Channel 0 WQ ROW_BUFFER_HIT:      20123
  ROW_BUFFER_MISS:      39543
  FULL:          0
Channel 0 REFRESHES ISSUED:      10290
